// -*- C++ -*-
// File generated by PyFoam - sorry for the ugliness

FoamFile
{
 version 2.0;
 format ascii;
 class dictionary;
 location "constant";
 object inflowProperties;
}

genZone genPlane;

// reference delta size (half channel in m)
refD 0.3;

// length in y direction (m) : height
LY 0.6; 	

// length in z direction (m) : span
LZ 1.1; 	

// number of cells for the virtual mesh used by the digital filter
NY 100;
NZ 100; 	

// lagrangian time for streamwise velocity
lagT_u 0.04242424; 	
lagT_w 0.01272727; 
lagT_v 0.00848484; 

